version 2
1
2
.dc V1 10 14 10m{return}.kicad adjustpaths{return}.save all{return}.probe alli
1
1
V(Net-_Q1-C_)
 
